Because of the data size of the bts wind files only the input files for TurbSim are available here. With these input files and TurbSim the wind files can be created.
